Result69.out

#########################################################################################

Summary :

Minimum voltage in the 69 bus system is at bus no : 65	Voltage magnitude is : 0.909216

Real Power Loss = 0.224562 MW

Reactive Power Loss =  0.101988 MVAr


-----------------------------------------------------------------------------------------
			Newton Raphson Loadflow Results		
-----------------------------------------------------------------------------------------

| Bus |      V      |   Angle  |     Injection Power      |          Load      |
| No  |      pu     |  Degrees |    MW      |      MVar   |     KW     |  KVar |

-----------------------------------------------------------------------------------------

   1	1.000000    0.000000	4.109022    2.732527   0.000   0.000
   2	0.999967    -0.001274	-0.021301    0.008874   0.000   0.000
   3	0.999933    -0.002538	-0.016581    0.006885   0.000   0.000
   4	0.999840    -0.006000	-0.005373    0.002360   0.000   0.000
   5	0.999024    -0.018877	-0.000310    0.000285   0.000   0.000
   6	0.990099    0.045112	-0.002632    -0.002133   2.600   2.200
   7	0.980815    0.111622	-0.040479    -0.029685   40.400   30.000
   8	0.978601    0.127364	-0.075243    -0.053180   75.000   54.000
   9	0.977468    0.135397	-0.030156    -0.021542   30.000   22.000
  10	0.972468    0.210654	-0.028028    -0.018704   28.000   19.000
  11	0.971366    0.227193	-0.145048    -0.102662   145.000   104.000
  12	0.968203    0.273600	-0.145016    -0.102517   145.000   104.000
  13	0.965276    0.314102	-0.008008    -0.004884   8.000   5.000
  14	0.962375    0.354225	-0.008008    -0.005373   8.000   5.500
  15	0.959502    0.393801	-0.000025    0.000075   0.000   0.000
  16	0.958968    0.401157	-0.045532    -0.029236   45.500   30.000
  17	0.958087    0.413147	-0.060905    -0.031421   60.000   35.000
  18	0.958078    0.413273	-0.060906    -0.031416   60.000   35.000
  19	0.957612    0.420915	-0.000032    0.000097   0.000   0.000
  20	0.957314    0.425878	-0.001031    -0.000489   1.000   0.600
  21	0.956831    0.433843	-0.114303    -0.078259   114.000   81.000
  22	0.956824    0.433954	-0.005317    -0.002452   5.000   3.500
  23	0.956752    0.435172	-0.000038    0.000114   0.000   0.000
  24	0.956595    0.437839	-0.028017    -0.019498   28.000   20.000
  25	0.956426    0.440694	-0.000019    0.000057   0.000   0.000
  26	0.956356    0.441879	-0.014037    -0.009661   14.000   10.000
  27	0.956336    0.442213	-0.014024    -0.009701   14.000   10.000
  28	0.999927    -0.002796	-0.027273    -0.018084   26.000   18.600
  29	0.999855    -0.005426	-0.026089    -0.018533   26.000   18.600
  30	0.999734    -0.003389	-0.000075    0.000227   0.000   0.000
  31	0.999713    -0.003023	-0.000076    0.000231   0.000   0.000
  32	0.999606    -0.001162	-0.000018    0.000055   0.000   0.000
  33	0.999350    0.003245	-0.014008    -0.009974   14.000   10.000
  34	0.999014    0.009074	-0.019506    -0.013977   19.500   14.000
  35	0.998947    0.010131	-0.006003    -0.003989   6.000   4.000
  36	0.999920    -0.003195	-0.027273    -0.018034   26.000   18.550
  37	0.999759    -0.011603	-0.026152    -0.018466   26.000   18.550
  38	0.999599    -0.016000	-0.000314    0.000269   0.000   0.000
  39	0.999552    -0.017262	-0.028358    -0.013282   24.000   17.000
  40	0.999550    -0.017324	-0.028124    -0.013482   24.000   17.000
  41	0.998843    -0.037359	-0.001234    -0.000973   1.200   1.000
  42	0.998546    -0.045839	-0.000204    0.000175   0.000   0.000
  43	0.998507    -0.046950	-0.006972    -0.003529   6.000   4.300
  44	0.998498    -0.047214	-0.000858    0.000679   0.000   0.000
  45	0.998399    -0.050270	-0.047261    -0.020349   39.220   26.300
  46	0.998399    -0.050284	-0.047194    -0.020402   39.220   26.300
  47	0.999790    -0.007818	-0.001595    0.000646   0.000   0.000
  48	0.998544    -0.052595	-0.079080    -0.056513   79.000   56.400
  49	0.994694    -0.190796	-0.384781    -0.277037   384.700   274.500
  50	0.994148    -0.210391	-0.384763    -0.277309   384.700   274.500
  51	0.978565    0.127640	-0.040575    -0.027953   40.500   28.300
  52	0.978556    0.127815	-0.003613    -0.002645   3.600   2.700
  53	0.974681    0.156304	-0.004412    -0.003354   4.350   3.500
  54	0.971437    0.180590	-0.026448    -0.018733   26.400   19.000
  55	0.966962    0.214075	-0.024040    -0.016935   24.000   17.200
  56	0.962591    0.246673	-0.000023    0.000047   0.000   0.000
  57	0.940066    0.613290	-0.000008    0.000023   0.000   0.000
  58	0.928964    0.794038	-0.000018    0.000054   0.000   0.000
  59	0.924666    0.865184	-0.100022    -0.068627   100.000   72.000
  60	0.919613    0.956498	-0.000019    0.000051   0.000   0.000
  61	0.912197    1.011691	-1.244062    -0.839069   1244.000   888.000
  62	0.911907    1.013838	-0.032087    -0.021568   32.000   23.000
  63	0.911518    1.016719	-0.000042    0.000084   0.000   0.000
  64	0.909613    1.030834	-0.227012    -0.152873   227.000   162.000
  65	0.909037    1.035066	-0.059005    -0.039613   59.000   42.000
  66	0.971309    0.227844	-0.018843    -0.010015   18.000   13.000
  67	0.971309    0.227852	-0.018824    -0.010080   18.000   13.000
  68	0.967872    0.277740	-0.028918    -0.017013   28.000   20.000
  69	0.967871    0.277753	-0.028912    -0.017030   28.000   20.000
-----------------------------------------------------------------------------------------
Total				0.224562    0.171561      3801.890      2694.100
-----------------------------------------------------------------------------------------

-----------------------------------------------------------------------------------------
			Line Flow Result		
-----------------------------------------------------------------------------------------
| From Bus | To Bus |    P (MW)    |    Q (MVAr)     |
-----------------------------------------------------------------------------------------
      1	    2		-4.109022	-2.732527j	
      2	    1		4.108946	2.732345j	
      2	    3		-4.087646	-2.741220j	
      3	    2		4.087570	2.741039j	
      3	    4		-3.763820	-2.576508j	
      3	   28		-0.093087	-0.064066j	
      3	   36		-0.214082	-0.107351j	
      4	    3		3.763625	2.576041j	
      4	    5		-2.905677	-1.967974j	
      4	   47		-0.852575	-0.610428j	
      5	    4		2.903748	1.965714j	
      5	    6		-2.903438	-1.965999j	
      6	    5		2.875306	1.951672j	
      6	    7		-2.872674	-1.949534j	
      7	    6		2.843439	1.934644j	
      7	    8		-2.802960	-1.904799j	
      8	    7		2.796093	1.901298j	
      8	    9		-2.676659	-1.816976j	
      8	   51		-0.044190	-0.030800j	
      9	    8		2.673297	1.815264j	
      9	   10		-0.786237	-0.513436j	
      9	   53		-1.856905	-1.280140j	
     10	    9		0.781521	0.511878j	
     10	   11		-0.753493	-0.492962j	
     11	   10		0.752492	0.492630j	
     11	   12		-0.569774	-0.368376j	
     11	   66		-0.037670	-0.020405j	
     12	   11		0.567609	0.367660j	
     12	   13		-0.364741	-0.229076j	
     12	   68		-0.057852	-0.034632j	
     13	   12		0.363469	0.228656j	
     13	   14		-0.355461	-0.223680j	
     14	   13		0.354228	0.223273j	
     14	   15		-0.346220	-0.217797j	
     15	   14		0.345028	0.217403j	
     15	   16		-0.345003	-0.217478j	
     16	   15		0.344781	0.217405j	
     16	   17		-0.299249	-0.187501j	
     17	   16		0.298932	0.187396j	
     17	   18		-0.238028	-0.155055j	
     18	   17		0.238025	0.155054j	
     18	   19		-0.177119	-0.122717j	
     19	   18		0.177015	0.122683j	
     19	   20		-0.176984	-0.122780j	
     20	   19		0.176917	0.122758j	
     20	   21		-0.175886	-0.122254j	
     21	   20		0.175779	0.122218j	
     21	   22		-0.061476	-0.042140j	
     22	   21		0.061476	0.042140j	
     22	   23		-0.056159	-0.039603j	
     23	   22		0.056154	0.039601j	
     23	   24		-0.056116	-0.039715j	
     24	   23		0.056105	0.039711j	
     24	   25		-0.028088	-0.019763j	
     25	   24		0.028082	0.019761j	
     25	   26		-0.028063	-0.019818j	
     26	   25		0.028061	0.019817j	
     26	   27		-0.014024	-0.009929j	
     27	   26		0.014024	0.009929j	
     28	    3		0.093086	0.064065j	
     28	   29		-0.065813	-0.045984j	
     29	   28		0.065811	0.045978j	
     29	   30		-0.039721	-0.027449j	
     30	   29		0.039715	0.027447j	
     30	   31		-0.039640	-0.027674j	
     31	   30		0.039639	0.027674j	
     31	   32		-0.039563	-0.027905j	
     32	   31		0.039558	0.027903j	
     32	   33		-0.039540	-0.027958j	
     33	   32		0.039528	0.027953j	
     33	   34		-0.025520	-0.017977j	
     34	   33		0.025509	0.017974j	
     34	   35		-0.006004	-0.003991j	
     35	   34		0.006003	0.003991j	
     36	    3		0.214081	0.107348j	
     36	   37		-0.186808	-0.089316j	
     37	   36		0.186790	0.089275j	
     37	   38		-0.160639	-0.070819j	
     38	   37		0.160619	0.070796j	
     38	   39		-0.160305	-0.071065j	
     39	   38		0.160299	0.071058j	
     39	   40		-0.131941	-0.057793j	
     40	   39		0.131941	0.057792j	
     40	   41		-0.103817	-0.044327j	
     41	   40		0.103759	0.044260j	
     41	   42		-0.102525	-0.043289j	
     42	   41		0.102501	0.043261j	
     42	   43		-0.102297	-0.043436j	
     43	   42		0.102294	0.043432j	
     43	   44		-0.095322	-0.039914j	
     44	   43		0.095321	0.039914j	
     44	   45		-0.094463	-0.040594j	
     45	   44		0.094456	0.040585j	
     45	   46		-0.047195	-0.020319j	
     46	   45		0.047194	0.020319j	
     47	    4		0.852552	0.610371j	
     47	   48		-0.850957	-0.611017j	
     48	   47		0.850374	0.609590j	
     48	   49		-0.771294	-0.553222j	
     49	   48		0.769660	0.549225j	
     49	   50		-0.384879	-0.274758j	
     50	   49		0.384763	0.274474j	
     51	    8		0.044189	0.030799j	
     51	   52		-0.003613	-0.002661j	
     52	   51		0.003613	0.002661j	
     53	    9		1.851125	1.277197j	
     53	   54		-1.846713	-1.273818j	
     54	   53		1.840003	1.270400j	
     54	   55		-1.813555	-1.251495j	
     55	   54		1.804432	1.246850j	
     55	   56		-1.780392	-1.229729j	
     56	   55		1.771603	1.225252j	
     56	   57		-1.771581	-1.225299j	
     57	   56		1.721905	1.208625j	
     57	   58		-1.721898	-1.208647j	
     58	   57		1.697413	1.200430j	
     58	   59		-1.697395	-1.200484j	
     59	   58		1.687891	1.197341j	
     59	   60		-1.587869	-1.125409j	
     60	   59		1.577200	1.122170j	
     60	   61		-1.577181	-1.122220j	
     61	   60		1.563156	1.115077j	
     61	   62		-0.319094	-0.227198j	
     62	   61		0.318982	0.227141j	
     62	   63		-0.286896	-0.204311j	
     63	   62		0.286761	0.204243j	
     63	   64		-0.286719	-0.204325j	
     64	   63		0.286058	0.203988j	
     64	   65		-0.059046	-0.042012j	
     65	   64		0.059005	0.041991j	
     66	   11		0.037667	0.020404j	
     66	   67		-0.018824	-0.010234j	
     67	   66		0.018824	0.010234j	
     68	   12		0.057830	0.034624j	
     68	   69		-0.028912	-0.017321j	
     69	   68		0.028912	0.017321j	
-----------------------------------------------------------------------------------------

-----------------------------------------------------------------------------------------
			Line Loss 		
-----------------------------------------------------------------------------------------
| From Bus | To Bus |    P (MW)    |    Q (MVAr)     |
-----------------------------------------------------------------------------------------
    1	    2		-0.000076	-0.000182	
    2	    3		-0.000076	-0.000181	
    3	    4		-0.000195	-0.000467	
    4	    5		-0.001929	-0.002260	
    5	    6		-0.028132	-0.014327	
    6	    7		-0.029235	-0.014890	
    7	    8		-0.006868	-0.003501	
    8	    9		-0.003362	-0.001711	
    9	   10		-0.004716	-0.001559	
   10	   11		-0.001001	-0.000331	
   11	   12		-0.002165	-0.000716	
   12	   13		-0.001272	-0.000420	
   13	   14		-0.001233	-0.000407	
   14	   15		-0.001192	-0.000394	
   15	   16		-0.000222	-0.000073	
   16	   17		-0.000317	-0.000105	
   17	   18		-0.000003	-0.000001	
   18	   19		-0.000103	-0.000034	
   19	   20		-0.000066	-0.000022	
   20	   21		-0.000107	-0.000035	
   21	   22		-0.000001	-0.000000	
   22	   23		-0.000005	-0.000002	
   23	   24		-0.000011	-0.000004	
   24	   25		-0.000006	-0.000002	
   25	   26		-0.000002	-0.000001	
   26	   27		-0.000000	-0.000000	
    3	   28		-0.000000	-0.000001	
   28	   29		-0.000003	-0.000006	
   29	   30		-0.000006	-0.000002	
   30	   31		-0.000001	-0.000000	
   31	   32		-0.000005	-0.000002	
   32	   33		-0.000012	-0.000004	
   33	   34		-0.000010	-0.000003	
   34	   35		-0.000000	-0.000000	
    3	   36		-0.000002	-0.000004	
   36	   37		-0.000017	-0.000042	
   37	   38		-0.000020	-0.000024	
   38	   39		-0.000006	-0.000007	
   39	   40		-0.000000	-0.000000	
   40	   41		-0.000058	-0.000068	
   41	   42		-0.000024	-0.000028	
   42	   43		-0.000003	-0.000004	
   43	   44		-0.000001	-0.000001	
   44	   45		-0.000007	-0.000009	
   45	   46		-0.000000	-0.000000	
    4	   47		-0.000023	-0.000058	
   47	   48		-0.000583	-0.001427	
   48	   49		-0.001634	-0.003998	
   49	   50		-0.000116	-0.000284	
    8	   51		-0.000002	-0.000001	
   51	   52		-0.000000	-0.000000	
    9	   53		-0.005780	-0.002943	
   53	   54		-0.006710	-0.003418	
   54	   55		-0.009123	-0.004645	
   55	   56		-0.008788	-0.004477	
   56	   57		-0.049675	-0.016674	
   57	   58		-0.024485	-0.008217	
   58	   59		-0.009504	-0.003143	
   59	   60		-0.010669	-0.003239	
   60	   61		-0.014024	-0.007143	
   61	   62		-0.000112	-0.000057	
   62	   63		-0.000135	-0.000069	
   63	   64		-0.000661	-0.000337	
   64	   65		-0.000041	-0.000021	
   11	   66		-0.000002	-0.000001	
   66	   67		-0.000000	-0.000000	
   12	   68		-0.000022	-0.000007	
   68	   69		-0.000000	-0.000000	
   11	   43		0.000000	0.000000	
   13	   21		0.000000	0.000000	
   15	   46		0.000000	0.000000	
   50	   59		0.000000	0.000000	
   27	   65		0.000000	0.000000	
-----------------------------------------------------------------------------------------
Total			0.224562 MW	0.101988 MVAr
-----------------------------------------------------------------------------------------

#########################################################################################
